data/radial_test/case16am.m
function mpc = case16am
%CASE16AM

%% MATPOWER Case Format : Version 2
mpc.version = '2';

%%-----  Power Flow Data  -----%%
%% system MVA base
mpc.baseMVA = 10;

%% bus data
%	bus_i	type	Pd	Qd	Gs	Bs	area	Vm	Va	baseKV	zone	Vmax	Vmin
mpc.bus = [
	1	3	0	0	0	0	1	1	0	12.66	1	1	1;
	2	1	0	0	0	0	1	1	0	12.66	1	1.1	0.9;
	3	1	2	1.6	0	0	1	1	0	12.66	1	1.1	0.9;
	4	1	3	0.4	0	0	1	1	0	12.66	1	1.1	0.9;
	5	1	2	-0.4	0	0	1	1	0	12.66	1	1.1	0.9;
	6	1	1.5	1.2	0	0	1	1	0	12.66	1	1.1	0.9;
	7	1	4	2.7	0	0	1	1	0	12.66	1	1.1	0.9;
	8	1	5	1.8	0	0	1	1	0	12.66	1	1.1	0.9;
	9	1	1	0.9	0	0	1	1	0	12.66	1	1.1	0.9;
	10	1	0.6	-0.5	0	0	1	1	0	12.66	1	1.1	0.9;
	11	1	4.5	-1.7	0	0	1	1	0	12.66	1	1.1	0.9;
	12	1	1	0.9	0	0	1	1	0	12.66	1	1.1	0.9;
	13	1	1	-1.1	0	0	1	1	0	12.66	1	1.1	0.9;
	14	1	1	0.9	0	0	1	1	0	12.66	1	1.1	0.9;
	15	1	2.1	-0.8	0	0	1	1	0	12.66	1	1.1	0.9;
];

%% generator data
%	bus	Pg	Qg	Qmax	Qmin	Vg	mBase	status	Pmax	Pmin	Pc1	Pc2	Qc1min	Qc1max	Qc2min	Qc2max	ramp_agc	ramp_10	ramp_30	ramp_q	apf
mpc.gen = [
	1	0	0	10	-10	1	100	1	10	0	0	0	0	0	0	0	0	0	0	0	0;
];

%% branch data
%	fbus	tbus	r	x	b	rateA	rateB	rateC	ratio	angle	status	angmin	angmax
mpc.branch = [
	1	2	0	6.23925289e-10	0	0	0	0	0	0	1	-360	360;
	2	3	0.00749958197	0.0100015224	0	0	0	0	0	0	1	-360	360;
	3	4	0.0079987222	0.0109998028	0	0	0	0	0	0	1	-360	360;
	3	5	0.00899700266	0.0180002446	0	0	0	0	0	0	1	-360	360;
	5	6	0.0039993611	0.0039993611	0	0	0	0	0	0	1	-360	360;
	2	7	0.0109998028	0.0109998028	0	0	0	0	0	0	1	-360	360;
	7	8	0.0079987222	0.0109998028	0	0	0	0	0	0	1	-360	360;
	7	9	0.0109998028	0.0109998028	0	0	0	0	0	0	1	-360	360;
	8	10	0.0109998028	0.0109998028	0	0	0	0	0	0	1	-360	360;
	8	11	0.0079987222	0.0109998028	0	0	0	0	0	0	1	-360	360;
	2	12	0.0109998028	0.0109998028	0	0	0	0	0	0	1	-360	360;
	12	13	0.00899700266	0.0119980833	0	0	0	0	0	0	1	-360	360;
	12	14	0.0079987222	0.0109998028	0	0	0	0	0	0	1	-360	360;
	14	15	0.0039993611	0.0039993611	0	0	0	0	0	0	1	-360	360;
];

%%-----  OPF Data  -----%%
%% generator cost data
%	1	startup	shutdown	n	x1	y1	...	xn	yn
%	2	startup	shutdown	n	c(n-1)	...	c0
mpc.gencost = [
	2	0	0	3	0	20	0;
];
